<routes>
    <vType id="car" accel="2.0" decel="4.5" sigma="0.5" length="5" maxSpeed="13.9" color="1,0,0"/>

    <!-- Routes -->
    <route id="north_south" edges="eN eS_out"/>
    <route id="south_north" edges="eS eN_out"/>
    <route id="west_east" edges="eW eE_out"/>
    <route id="east_west" edges="eE eW_out"/>

    <!-- Vehicles (sorted by depart) -->
    <vehicle id="veh0" type="car" route="north_south" depart="0"/>
    <vehicle id="EW_0" type="car" route="east_west" depart="0"/>
    <vehicle id="SN_0" type="car" route="south_north" depart="1"/>
    <vehicle id="WE_0" type="car" route="west_east" depart="2"/>
    <vehicle id="NS_1" type="car" route="north_south" depart="3"/>
    <vehicle id="EW_1" type="car" route="east_west" depart="3"/>
    <vehicle id="SN_1" type="car" route="south_north" depart="4"/>
    <vehicle id="WE_1" type="car" route="west_east" depart="5"/>
    <vehicle id="NS_2" type="car" route="north_south" depart="6"/>
    <vehicle id="EW_2" type="car" route="east_west" depart="6"/>
    <vehicle id="SN_2" type="car" route="south_north" depart="7"/>
    <vehicle id="WE_2" type="car" route="west_east" depart="8"/>
    <vehicle id="NS_3" type="car" route="north_south" depart="9"/>
    <vehicle id="EW_3" type="car" route="east_west" depart="9"/>
    <vehicle id="SN_3" type="car" route="south_north" depart="10"/>
    <vehicle id="WE_3" type="car" route="west_east" depart="11"/>
    <vehicle id="NS_4" type="car" route="north_south" depart="12"/>
    <vehicle id="EW_4" type="car" route="east_west" depart="12"/>
    <vehicle id="SN_4" type="car" route="south_north" depart="13"/>
    <vehicle id="WE_4" type="car" route="west_east" depart="14"/>
</routes>
