<?xml version='1.0' encoding='utf-8'?>
<routes>
    <vType id="car" accel="2.0" decel="4.5" sigma="0.5" length="5" maxSpeed="13.9" color="0,1,1" />
    <route id="north_south" edges="eN eS_out" />
    <route id="south_north" edges="eS eN_out" />
    <route id="west_east" edges="eW eE_out" />
    <route id="east_west" edges="eE eW_out" />
    <route id="north_east" edges="eN eE_out" />
    <route id="south_west" edges="eS eW_out" />
    <route id="west_north" edges="eW eN_out" />
    <route id="east_south" edges="eE eS_out" />
    <flow id="flow_north_south_0" route="north_south" type="car" begin="0" end="3600" probability="0.05" />
    <flow id="flow_south_north_1" route="south_north" type="car" begin="1" end="3600" probability="0.0167" />
    <flow id="flow_east_west_2" route="east_west" type="car" begin="0.5" end="3600" probability="0.03" />
    <flow id="flow_west_east_3" route="west_east" type="car" begin="1.5" end="3600" probability="0.0167" />
    <flow id="flow_north_east_4" route="north_east" type="car" begin="2.5" end="3600" probability="0.0467" />
    <flow id="flow_south_west_5" route="south_west" type="car" begin="3.5" end="3600" probability="0.0167" />
    <flow id="flow_west_north_6" route="west_north" type="car" begin="4.5" end="3600" probability="0.0167" />
    <flow id="flow_east_south_7" route="east_south" type="car" begin="5.5" end="3600" probability="0.0767" />
</routes>