<?xml version='1.0' encoding='utf-8'?>
<additional>
    <tlLogic id="n0" type="static" programID="custom" offset="0">
        <phase duration="20" state="GGGGrrrrGGGGrrrr" />
        <phase duration="4" state="yyyyrrrryyyyrrrr" />
        <phase duration="20" state="rrrrGGGGrrrrGGGG" />
        <phase duration="4" state="rrrryyyyrrrryyyy" />
    </tlLogic>
</additional>